@<TRIPOS>MOLECULE
ZINC19850111
   43    45     0     0     0
SMALL
USER_CHARGES

@<TRIPOS>ATOM
      1 C1         -0.0187    1.5258    0.0104 C.3       1 <0>        -0.1215
      2 C2          0.0021   -0.0041    0.0020 C.3       1 <0>         0.0306
      3 C3          0.9183   -0.5578   -1.1267 C.3       1 <0>         0.0309
      4 H1          1.7655    0.1146   -1.2616 H         1 <0>         0.0687
      5 N1          1.4152   -1.8973   -0.7968 N.am      1 <0>        -0.5062
      6 C4          1.5639   -2.1961    0.6340 C.3       1 <0>         0.1057
      7 H2          1.1313   -3.1348    0.9800 H         1 <0>         0.1539
      8 S1          0.9226   -0.6800    1.4567 S.3       1 <0>        -0.3002
      9 C5          3.0673   -2.2015    0.4210 C.3       1 <0>         0.0800
     10 H3          3.5574   -3.1223    0.7376 H         1 <0>         0.1367
     11 C6          2.7129   -2.1678   -1.0358 C.2       1 <0>         0.4956
     12 O1          3.3561   -2.3252   -2.0520 O.2       1 <0>        -0.4370
     13 N2          3.7428   -0.9941    0.9027 N.am      1 <0>        -0.6871
     14 C7          5.0446   -1.0426    1.2482 C.2       1 <0>         0.4899
     15 O2          5.6569   -2.0859    1.1604 O.2       1 <0>        -0.5349
     16 C8          5.7395    0.1994    1.7437 C.3       1 <0>         0.1205
     17 H4          5.4088    1.0583    1.1597 H         1 <0>         0.1149
     18 C9          5.4011    0.4190    3.1957 C.ar      1 <0>        -0.0836
     19 C10         6.0656   -0.2959    4.1750 C.ar      1 <0>        -0.0795
     20 C11         5.7570   -0.0969    5.5067 C.ar      1 <0>        -0.1447
     21 C12         4.7795    0.8216    5.8612 C.ar      1 <0>         0.1074
     22 C13         4.1145    1.5380    4.8767 C.ar      1 <0>        -0.1395
     23 C14         4.4305    1.3390    3.5467 C.ar      1 <0>        -0.0848
     24 O3          4.4737    1.0190    7.1706 O.3       1 <0>        -0.4996
     25 N3          7.1924    0.0387    1.5985 N.3       1 <0>        -0.8126
     26 C15         0.1332   -0.6267   -2.4112 C.2       1 <0>         0.5138
     27 O4          0.1177    0.3290   -3.1682 O.co2     1 <0>        -0.6851
     28 O5         -0.4864   -1.6381   -2.6935 O.co2     1 <0>        -0.6572
     29 C16        -1.4126   -0.5802   -0.0861 C.3       1 <0>        -0.1237
     30 H5          1.0039    1.9031    0.0027 H         1 <0>         0.0636
     31 H6         -0.5459    1.8868   -0.8726 H         1 <0>         0.0880
     32 H7         -0.5289    1.8773    0.9072 H         1 <0>         0.0665
     33 H8          3.2531   -0.1597    0.9729 H         1 <0>         0.4142
     34 H9          6.8265   -1.0109    3.8986 H         1 <0>         0.1267
     35 H10         6.2758   -0.6560    6.2712 H         1 <0>         0.1290
     36 H11         3.3531    2.2536    5.1502 H         1 <0>         0.1315
     37 H12         3.9161    1.8997    2.7802 H         1 <0>         0.1310
     38 H13         4.9984    1.7102    7.5971 H         1 <0>         0.3896
     39 H14         7.5238   -0.7517    2.1310 H         1 <0>         0.3505
     40 H15         7.4515   -0.0456    0.6269 H         1 <0>         0.3515
     41 H16        -1.8843   -0.2455   -1.0100 H         1 <0>         0.0789
     42 H17        -1.3627   -1.6690   -0.0774 H         1 <0>         0.0694
     43 H18        -1.9986   -0.2365    0.7662 H         1 <0>         0.0582
@<TRIPOS>BOND
     1    1    2 1
     2    1   30 1
     3    1   31 1
     4    1   32 1
     5    2    8 1
     6    2    3 1
     7    2   29 1
     8    3    4 1
     9    3    5 1
    10    3   26 1
    11    5   11 am
    12    5    6 1
    13    6    7 1
    14    6    8 1
    15    6    9 1
    16    9   10 1
    17    9   11 1
    18    9   13 1
    19   11   12 2
    20   13   14 am
    21   13   33 1
    22   14   15 2
    23   14   16 1
    24   16   17 1
    25   16   18 1
    26   16   25 1
    27   18   23 ar
    28   18   19 ar
    29   19   20 ar
    30   19   34 1
    31   20   21 ar
    32   20   35 1
    33   21   22 ar
    34   21   24 1
    35   22   23 ar
    36   22   36 1
    37   23   37 1
    38   24   38 1
    39   25   39 1
    40   25   40 1
    41   26   27 2
    42   26   28 1
    43   29   41 1
    44   29   42 1
    45   29   43 1

